OPT_V10/Two_days_first_run/powerflow_results_t42.txt
Pandapower Network Debug Info
==================================================

BUS:
       vm_pu  va_degree      p_mw    q_mvar
0   0.992995   0.161013  0.000802  0.000859
1   0.988558   0.257670  0.001260  0.002332
2   0.984594   0.334852  0.001980  0.002993
3   0.989105   0.274081  0.002175  0.004598
4   0.990286   0.173986  0.002879  0.004180
5   0.991771   0.150239  0.003757  0.005882
6   0.990133   0.168925  0.000980  0.001132
7   0.997797   0.014889  0.001634  0.001623
8   0.997830   0.037437  0.002283  0.003497
9   0.999821   0.001538  0.010779  0.010783
10  0.999828   0.001491  0.011245  0.009746
11  0.999846   0.001396  0.010833  0.012490
12  0.999755   0.001292  0.011683  0.005903
13  0.999724   0.001501  0.012989  0.011211
14  0.999734   0.001470  0.014793  0.014092
15  0.999927   0.000810  0.000000  0.000000
16  0.999927   0.000816  0.000000  0.000000
17  0.999760   0.001356  0.000000  0.000000
18  0.999760   0.001366  0.000000  0.000000
19  1.000000   0.000000 -0.039227 -0.048906
20  1.000000   0.000007  0.000000  0.000000
21  1.000000   0.000000 -0.051140 -0.052616
22  1.000000   0.000007  0.000000  0.000000
--------------------------------------------------

LINE:
    p_from_mw  q_from_mvar   p_to_mw  q_to_mvar         pl_mw       ql_mvar  i_from_ka   i_to_ka      i_ka  vm_from_pu  va_from_degree  vm_to_pu  va_to_degree  loading_percent
0    0.039217     0.044906 -0.039214  -0.044904  3.476876e-06  2.710977e-06   0.002295  0.002295  0.002295    1.000000        0.000007  0.999927      0.000810         0.997736
1    0.051130     0.048616 -0.051116  -0.048606  1.338954e-05  1.044005e-05   0.002716  0.002716  0.002716    1.000000        0.000007  0.999760      0.001356         1.180695
2    0.032860     0.033022 -0.032857  -0.033020  3.002552e-06  2.341139e-06   0.001793  0.001793  0.001793    0.999927        0.000810  0.999846      0.001396         0.779667
3    0.011683     0.005903 -0.011683  -0.005903  5.928347e-08  4.622429e-08   0.000504  0.000504  0.000504    0.999760        0.001356  0.999755      0.001292         0.219109
4    0.027782     0.025304 -0.027781  -0.025303  7.725099e-07  6.023387e-07   0.001447  0.001447  0.001447    0.999760        0.001356  0.999734      0.001470         0.629015
5    0.006344     0.010882 -0.006269  -0.010824  7.421633e-05  5.786770e-05   0.018182  0.018182  0.018182    0.999927        0.000816  0.992995      0.161013         7.905113
6    0.004795     0.007060 -0.004739  -0.007016  5.653070e-05  4.407792e-05   0.012321  0.012321  0.012321    0.999760        0.001366  0.991771      0.150239         5.356905
7    0.001638     0.001626 -0.001634  -0.001623  3.599920e-06  2.806917e-06   0.003332  0.003332  0.003332    0.999760        0.001366  0.997797      0.014889         1.448608
8    0.005208     0.007714 -0.005193  -0.007702  1.490109e-05  1.161862e-05   0.013437  0.013437  0.013437    0.999760        0.001366  0.997830      0.037437         5.842184
9    0.010779     0.010783 -0.010779  -0.010783  8.042074e-08  6.270538e-08   0.000587  0.000587  0.000587    0.999828        0.001491  0.999821      0.001538         0.255198
10   0.022025     0.020529 -0.022024  -0.020529  4.434929e-07  3.457987e-07   0.001159  0.001159  0.001159    0.999846        0.001396  0.999828      0.001491         0.503941
11   0.012989     0.011212 -0.012989  -0.011211  1.440596e-07  1.123257e-07   0.000661  0.000661  0.000661    0.999734        0.001470  0.999724      0.001501         0.287215
12  -0.003252    -0.005335  0.003275   0.005353  2.362980e-05  1.842454e-05   0.009122  0.009122  0.009122    0.988558        0.257670  0.992995      0.161013         3.966051
13  -0.002175    -0.004598  0.002192   0.004612  1.765894e-05  1.376897e-05   0.007423  0.007423  0.007423    0.989105        0.274081  0.992995      0.161013         3.227366
14  -0.001980    -0.002993  0.001992   0.003002  1.201666e-05  9.369586e-06   0.005261  0.005261  0.005261    0.984594        0.334852  0.988558      0.257670         2.287265
15   0.002911     0.004205 -0.002879  -0.004180  3.195843e-05  2.491852e-05   0.007397  0.007397  0.007397    0.997830        0.037437  0.990286      0.173986         3.216199
16  -0.000980    -0.001132  0.000982   0.001133  1.990684e-06  1.552169e-06   0.002183  0.002183  0.002183    0.990133        0.168925  0.991771      0.150239         0.948938
--------------------------------------------------

TRAFO:
    p_hv_mw  q_hv_mvar   p_lv_mw  q_lv_mvar    pl_mw   ql_mvar   i_hv_ka   i_lv_ka  vm_hv_pu  va_hv_degree  vm_lv_pu  va_lv_degree  loading_percent
0  0.006354   0.011882 -0.006344  -0.010882  0.00001  0.001000  0.000519  0.018182  0.999927      0.000810  0.999927      0.000816         0.134746
1  0.011651   0.017398 -0.011641  -0.016399  0.00001  0.000999  0.000806  0.029034  0.999760      0.001356  0.999760      0.001366         0.209443
2  0.039227   0.048906 -0.039217  -0.044906  0.00001  0.004000  0.000517  0.002295  1.000000      0.000000  1.000000      0.000007         0.156737
3  0.051140   0.052616 -0.051130  -0.048616  0.00001  0.004000  0.000605  0.002716  1.000000      0.000000  1.000000      0.000007         0.183435
--------------------------------------------------
